Circuit: * H:\Documents\TPELA\Draft3.asc

Direct Newton iteration for .op point succeeded.

Date: Thu Mar 31 11:26:33 2022
Total elapsed time: 0.083 seconds.

tnom = 27
temp = 27
method = modified trap
totiter = 4063
traniter = 4050
tranpoints = 2022
accept = 2022
rejected = 0
matrix size = 39
fillins = 24
solver = Normal
Matrix Compiler1: 4.59 KB object code size  0.5/0.4/[0.2]
Matrix Compiler2: 3.97 KB object code size  0.3/0.3/[0.2]

