Circuit: * H:\Documents\TPELA\Draft2.asc

Direct Newton iteration for .op point succeeded.

Date: Thu Mar 31 09:58:20 2022
Total elapsed time: 0.038 seconds.

tnom = 27
temp = 27
method = trap
totiter = 7
traniter = 0
tranpoints = 0
accept = 0
rejected = 0
matrix size = 14
fillins = 2
solver = Normal
Matrix Compiler1:      49 opcodes
Matrix Compiler2: 1.07 KB object code size
